/*--------------------------------*- C++ -*----------------------------------*\
  =========                 |
  \\      /  F ield         | OpenFOAM: The Open Source CFD Toolbox
   \\    /   O peration     | Website:  https://openfoam.org
    \\  /    A nd           | Version:  6
     \\/     M anipulation  |
\*---------------------------------------------------------------------------*/
FoamFile
{
    version     2.0;
    format      ascii;
    class       volScalarField;
    location    "0";
    object      epsilon;
}
// * * * * * * * * * * * * * * * * * * * * * * * * * * * * * * * * * * * * * //

dimensions      [0 2 -3 0 0 0 0];

internalField   uniform 14.855;

boundaryField
{
    cyl1_piston
    {
        type            fixedValue;
        value           uniform 14.855;
    }

    cyl2_piston
    {
        type            zeroGradient;
    }

    cyl1_wall
    {
        type            epsilonWallFunction;
        value           uniform 14.855;
    }
    cyl2_wall
    {
        type            epsilonWallFunction;
        value           uniform 14.855;
    }
    cyl1_head
    {
        type            epsilonWallFunction;
        value           uniform 14.855;
    }
    cyl2_head
    {
        type            epsilonWallFunction;
        value           uniform 14.855;
    }
    tube_wall
    {
        type            epsilonWallFunction;
        value           uniform 14.855;
    }
    front
    {
        type            wedge;
    }
    
    back
    {
	type		wedge;
    }	
}

// ************************************************************************* //
