/*--------------------------------*- C++ -*----------------------------------*\
  =========                 |
  \\      /  F ield         | OpenFOAM: The Open Source CFD Toolbox
   \\    /   O peration     | Website:  https://openfoam.org
    \\  /    A nd           | Version:  6
     \\/     M anipulation  |
\*---------------------------------------------------------------------------*/
FoamFile
{
    version     2.0;
    format      ascii;
    class       volScalarField;
    object      p;
}
// * * * * * * * * * * * * * * * * * * * * * * * * * * * * * * * * * * * * * //

dimensions      [0 2 -2 0 0 0 0];

internalField   uniform 0;

boundaryField
{
    cyl1_piston
    {
        type            fixedValue;
	value		uniform 1000;
    }

    cyl2_piston
    {
        type		fixedValue;
	value		uniform 0;
    }

    cyl1_wall
    {
        type            zeroGradient;
    }
    cyl2_wall
    {
        type            zeroGradient;
    }
    cyl1_head
    {
        type            zeroGradient;
    }
    cyl2_head
    {
        type            zeroGradient;
    }
    tube_wall
    {
        type            zeroGradient;
    }
    front
    {
        type            wedge;
    }
    
    back
    {
	type		wedge;
    }	
}
// ************************************************************************* //
